In line no 6, ID x is not declared.
In line no 7, ID x is not declared.
Parsing finished!
============= INTERMEDIATE CODE===============
  0: start              -1
  1: store              -1
  2: ld_int             20
  3: ld_int             12
  4: print_int_value    -1
  5: halt               -1
============= ASM CODE===============

;start -1
.686
.model flat, c
include C:\masm32\include\msvcrt.inc
includelib C:\masm32\lib\msvcrt.lib

.stack 100h
printf PROTO arg1:Ptr Byte, printlist:VARARG
scanf PROTO arg2:Ptr Byte, inputlist:VARARG

.data
output_integer_msg_format byte "%d", 0Ah, 0
output_string_msg_format byte "%s", 0Ah, 0
input_integer_format byte "%d",0

number sdword ?

.code

main proc
	push ebp
	mov ebp, esp
	sub ebp, 100
	mov ebx, ebp
	add ebx, 4

;store -1
	mov eax, [ebx-4]
	mov dword ptr [ebp--4], eax

;ld_int 20
	mov eax, 20
	mov dword ptr [ebx], eax
	add ebx, 4


;ld_int 12
	mov eax, 12
	mov dword ptr [ebx], eax
	add ebx, 4


;print_int_value -1
	push eax
	push ebx
	push ecx
	push edx
	push [ebp+4]
	push [ebp+8]
	push ebp
	mov eax, [ebp--4]
	INVOKE printf, ADDR output_integer_msg_format, eax
	pop ebp
	pop [ebp+8]
	pop [ebp+4]
	pop edx
	pop ecx
	pop ebx
	pop eax

;halt -1
	add ebp, 100
	mov esp, ebp
	pop ebp
	ret
main endp
end
